*Heading
** Job name: Job-1 Model name: Model-1
** Generated by: Abaqus/CAE 2022
*Preprint, echo=NO, model=NO, history=NO, contact=NO
**
** PARTS
**
*Part, name=Part-1
*Node
      1,           0.,           0.,           0.
      2,           0.,          20.,           0.
      3,          20.,           0.,           0.
      4,         -20.,           0.,           0.
      5,           0.,          20.,          40.
      6,          20.,           0.,          40.
      7,           0.,         -20.,           0.
      8,         -20.,           0.,          40.
      9,           0.,           0.,          40.
     10,           0.,         -20.,          40.
     11,           0.,   2.85714293,           0.
     12,           0.,   5.71428585,           0.
     13,           0.,    8.5714283,           0.
     14,           0.,   11.4285717,           0.
     15,           0.,   14.2857141,           0.
     16,           0.,   17.1428566,           0.
     17,   3.90180635,   19.6157055,           0.
     18,   7.65366888,   18.4775906,           0.
     19,   11.1114044,   16.6293926,           0.
     20,   14.1421356,   14.1421356,           0.
** ... 2463 like lines cut
*Element, type=C3D4
    1,  913,  914,  915,  916
    2,  913,  916,  917,  918
    3,  913,  916,  918,  919
    4,  508,  920,  509,  921
    5,  922,  923,  924,  925
    6,  926,  927,  928,  929
    7,  930,  931,  932,  933
    8,   56,  934,  935,  936
    9,  937,  938,  925,  939
   10,  922,  938,  925,  924
   11,  922,  929,  939,  940
   12,  939,  941,  942,  943
   13,  922,  928,  944,  945
   14,  922,  940,  939,  938
   15,  946,  938,  937,  939
   16,  939,  947,  925,  937
   17,  939,  947,  937,  941
   18,  948,  949,  950,  951
   19,  952,  949,  950,  948
   20,  942,  941,  948,  953
** ... 12115 like lines cut
*Nset, nset=Set-1, generate
    1,  2483,     1
*Elset, elset=Set-1, generate
     1,  12135,      1
*Nset, nset=Wire-1-Set-1
   1,   3,   4,   6,   8,   9,  24,  25,  26,  27,  28,  29,  30,  31,  32,  33
  34,  35,  69,  70,  71,  72,  73,  74,  75,  76,  77,  78,  79,  80,  81,  82
  83,  84,  85,  86,  87, 108, 109, 110, 111, 112, 113, 114, 115, 116, 117, 118
 119, 120, 121, 122, 123, 124, 125, 126, 140, 141, 142, 143, 144, 145, 179, 180
 181, 182, 183, 184
*Elset, elset=Wire-1-Set-1
   125,   229,   299,   400,   677,  1620,  1811,  1874,  1877,  1907,  2030,  2122,  2135,  2172,  2173,  2175
  2212,  2373,  2385,  2445,  2834,  2908,  3009,  3095,  3105,  3107,  3130,  3135,  3151,  3155,  3163,  3177
  3192,  3214,  3215,  3218,  3230,  3249,  3258,  3261,  3267,  3268,  3278,  3279,  3280,  3282,  3306,  3308
  3310,  3330,  3364,  3465,  3724,  3993,  4080,  4199,  4201,  4309,  4325,  4354,  4441,  4446,  4453,  4462
  4470,  4471,  4474,  4498,  4504,  4521,  4528,  4532,  4542,  4553,  4565,  4575,  4577,  4670,  4674,  4675
  4677,  4680,  4690,  4730,  4732,  4733,  4758,  4776,  4784,  4789,  4791,  4813,  4920,  4970,  5000,  5103
  5222,  5306,  5668,  5733,  5791,  5798,  5799,  5835,  5872,  5898,  5944,  6231,  6239,  6283,  6313,  6316
  6319,  6322,  6417,  6450,  6532,  6643,  6650,  6681,  6729,  7095,  7140,  7745,  8591,  9416,  9861,  9960
 10343, 10654, 11408, 12074
*Nset, nset=Wire-2-Set-1
   1,   2,   5,   7,   9,  10,  11,  12,  13,  14,  15,  16,  43,  44,  45,  46
  47,  48,  49,  50,  51,  52,  53,  54,  55,  56,  57,  58,  59,  60,  61,  88
  89,  90,  91,  92,  93, 134, 135, 136, 137, 138, 139, 146, 147, 148, 149, 150
 151, 152, 153, 154, 155, 156, 157, 158, 159, 160, 161, 162, 163, 164, 185, 186
 187, 188, 189, 190
*Elset, elset=Wire-2-Set-1
   400,   419,   522,   692,   783,  1023,  1037,  1624,  1634,  1644,  1681,  1723,  1832,  1939,  1945,  1960
  2084,  2088,  2093,  2124,  2277,  2279,  2285,  2291,  2292,  2313,  2341,  2364,  2370,  2373,  2385,  2401
  2418,  2435,  2443,  2479,  2489,  2525,  2544,  2546,  2554,  3056,  3301,  3303,  3324,  3332,  3375,  3445
  3544,  3548,  3610,  3678,  3679,  3686,  3697,  3705,  3711,  3751,  3757,  3760,  3764,  3815,  3818,  3819
  3822,  3826,  4157,  4396,  4644,  4674,  4680,  4704,  4719,  4895,  4904,  4931,  4934,  4936,  4961,  4965
  4970,  4986,  4997,  5011,  5036,  5061,  5074,  5091,  5094,  5103,  5105,  5117,  5132,  5140,  5149,  5214
  5270,  5311,  5441,  5472,  5830,  5842,  5843,  5855,  5858,  5900,  5947,  5989,  6096,  6195,  6539,  6569
  6582,  6744,  6761,  6764,  6776,  6778,  6821,  6842,  6848,  6895,  7068,  7201,  8542,  8545,  8591,  8759
  9510, 10409, 10586, 12103
** Section: Section-1
*Solid Section, elset=Set-1, material=Material-1
,
*End Part
**  
**
** ASSEMBLY
**
*Assembly, name=Assembly
**  
*Instance, name=Part-1-1, part=Part-1
*End Instance
**  
*Node
      1, -1.2246468e-15,           0.,          40.
*Nset, nset=Set-RP-1
 1,
*Nset, nset=Set-bottom_surface, instance=Part-1-1
   1,   2,   3,   4,   7,  11,  12,  13,  14,  15,  16,  17,  18,  19,  20,  21
  22,  23,  24,  25,  26,  27,  28,  29,  30,  31,  32,  33,  34,  35,  36,  37
  38,  39,  40,  41,  42,  88,  89,  90,  91,  92,  93,  94,  95,  96,  97,  98
  99, 100, 101, 102, 103, 104, 105, 106, 107, 191, 192, 193, 194, 195, 196, 197
 198, 199, 200, 201, 202, 203, 204, 205, 206, 207, 208, 209, 210, 211, 212, 213
 214, 215, 216, 217, 218, 219, 220, 221, 222, 223, 224, 225, 226, 227, 228, 229
 230, 231, 232, 233, 234, 235, 236, 237, 371, 372, 373, 374, 375, 376, 377, 378
 379, 380, 381, 382, 383, 384, 385, 386, 387, 388, 389, 390, 391, 392, 393, 394
 395, 396, 397, 398, 399, 400, 401, 402, 403, 404, 405, 406, 407, 408, 409, 410
 411, 412, 413, 414, 415, 416, 417, 418
*Elset, elset=Set-bottom_surface, instance=Part-1-1
   229,   400,   460,   522,   671,   783,  1608,  1647,  1664,  1702,  1739,  1743,  1747,  1759,  1773,  1776
  1781,  1825,  1827,  1837,  1872,  1874,  1877,  1881,  1890,  1896,  1907,  1909,  1910,  1913,  1918,  1927
  1933,  1934,  1939,  1945,  1949,  1956,  1981,  1985,  1989,  1992,  1996,  1997,  2001,  2009,  2010,  2015
  2016,  2020,  2029,  2030,  2036,  2039,  2046,  2052,  2084,  2085,  2086,  2091,  2093,  2103,  2106,  2113
  2120,  2122,  2124,  2127,  2135,  2153,  2156,  2162,  2164,  2172,  2173,  2184,  2189,  2191,  2200,  2204
  2213,  2219,  2225,  2236,  2249,  2257,  2269,  2270,  2271,  2282,  2283,  2284,  2285,  2291,  2293,  2297
  2301,  2323,  2328,  2334,  2349,  2362,  2364,  2368,  2370,  2371,  2373,  2385,  2391,  2427,  2429,  2436
  2565,  2576,  2580,  2669,  2687,  2691,  2808,  2904,  2908,  2996,  2997,  3009,  3094,  3095,  3143,  3330
  3332,  3350,  3357,  3375,  3376,  3377,  3385,  3390,  3394,  3396,  3410,  3425,  3433,  3436,  3445,  3448
  3454,  3456,  3461,  3464,  3475,  3476,  3480,  3495,  3498,  3502,  3504,  3538,  3541,  3542,  3544,  3548
  3550,  3553,  3567,  3575,  3579,  3580,  3584,  3595,  3601,  3602,  3605,  3612,  3614,  3616,  3622,  3626
  3635,  3643,  3652,  3658,  3659,  3757,  3760,  3768,  3774,  3775,  3781,  3836,  3858,  3978,  4079,  4080
  4086,  4109,  4201,  4203,  4207,  4309,  4325,  4327,  4399,  4406,  4417,  4442,  4446,  4520,  4528,  4533
  4548,  4561,  4575,  4952,  4963,  4994,  5004,  5020,  5029,  5036,  5053,  5064,  5075,  5091,  5098,  5099
  5105,  5111,  5117,  5119,  5135,  5152,  5172,  5260,  5270,  5282,  5368,  5393,  5405,  5407,  5409,  5504
  5508,  5524,  5568,  5605,  5711,  5712,  5791,  5798,  5799,  5821,  5845,  5851,  5858,  6040,  6168,  6173
  6177,  6272,  7010,  8591,  8821,  9416,  9507,  9608,  9737, 11149, 11859, 11959, 12024, 12030
*Nset, nset=Set-surface, instance=Part-1-1, generate
   1,  912,    1
*Elset, elset=Set-surface, instance=Part-1-1
    21,    33,    97,   113,   114,   125,   183,   229,   230,   252,   272,   291,   299,   326,   400,   404
   418,   419,   427,   435,   460,   464,   501,   522,   582,   594,   610,   612,   671,   673,   676,   677
   692,   694,   699,   717,   783,   832,   879,   899,   914,  1023,  1035,  1036,  1037,  1077,  1078,  1130
  1170,  1179,  1211,  1323,  1341,  1361,  1384,  1403,  1432,  1454,  1473,  1493,  1494,  1608,  1611,  1615
  1620,  1621,  1622,  1624,  1629,  1634,  1641,  1644,  1646,  1647,  1651,  1661,  1662,  1664,  1666,  1679
  1681,  1691,  1693,  1695,  1696,  1699,  1702,  1714,  1715,  1716,  1717,  1718,  1723,  1739,  1743,  1744
  1747,  1755,  1759,  1773,  1776,  1778,  1780,  1781,  1783,  1792,  1798,  1804,  1806,  1811,  1815,  1825
  1827,  1832,  1835,  1837,  1854,  1866,  1872,  1874,  1876,  1877,  1879,  1881,  1884,  1890,  1894,  1896
  1898,  1907,  1909,  1910,  1912,  1913,  1918,  1927,  1931,  1933,  1934,  1938,  1939,  1945,  1949,  1956
  1960,  1974,  1976,  1981,  1982,  1983,  1984,  1985,  1989,  1992,  1996,  1997,  1999,  2001,  2009,  2010
  2011,  2015,  2016,  2020,  2021,  2029,  2030,  2033,  2036,  2038,  2039,  2046,  2052,  2061,  2072,  2079
  2084,  2085,  2086,  2088,  2091,  2093,  2096,  2097,  2103,  2106,  2113,  2120,  2122,  2123,  2124,  2127
  2135,  2153,  2155,  2156,  2162,  2164,  2172,  2173,  2175,  2184,  2189,  2191,  2200,  2204,  2208,  2211
  2212,  2213,  2214,  2219,  2225,  2228,  2234,  2236,  2249,  2257,  2269,  2270,  2271,  2277,  2279,  2282
  2283,  2284,  2285,  2289,  2291,  2292,  2293,  2295,  2297,  2298,  2301,  2311,  2313,  2314,  2319,  2320
  2323,  2328,  2329,  2331,  2334,  2339,  2341,  2349,  2350,  2357,  2360,  2362,  2363,  2364,  2367,  2368
  2370,  2371,  2373,  2379,  2385,  2386,  2388,  2390,  2391,  2401,  2402,  2409,  2412,  2413,  2414,  2416
  2418,  2425,  2426,  2427,  2429,  2431,  2434,  2435,  2436,  2442,  2443,  2444,  2445,  2452,  2456,  2462
  2465,  2470,  2471,  2475,  2479,  2488,  2489,  2490,  2492,  2494,  2497,  2499,  2507,  2510,  2518,  2519
  2520,  2525,  2526,  2531,  2544,  2546,  2549,  2551,  2554,  2560,  2562,  2565,  2566,  2568,  2573,  2576
** ... 91 like lines cut
*Nset, nset=Set-top_surface, instance=Part-1-1
   5,   6,   8,   9,  10,  62,  63,  64,  65,  66,  67,  68, 127, 128, 129, 130
 131, 132, 133, 134, 135, 136, 137, 138, 139, 140, 141, 142, 143, 144, 145, 165
 166, 167, 168, 169, 170, 171, 172, 173, 174, 175, 176, 177, 178, 179, 180, 181
 182, 183, 184, 185, 186, 187, 188, 189, 190, 552, 553, 554, 555, 556, 557, 558
 559, 560, 561, 562, 563, 564, 565, 566, 567, 568, 569, 570, 571, 572, 573, 574
 575, 842, 843, 844, 845, 846, 847, 848, 849, 850, 851, 852, 853, 854, 855, 856
 857, 858, 859, 860, 861, 862, 863, 864, 865, 866, 867, 868, 869, 870, 871, 872
 873, 874, 875, 876, 877, 878, 879, 880, 881, 882, 883, 884, 885, 886, 887, 888
 889, 890, 891, 892, 893, 894, 895, 896, 897, 898, 899, 900, 901, 902, 903, 904
 905, 906, 907, 908, 909, 910, 911, 912
*Elset, elset=Set-top_surface, instance=Part-1-1
    21,    97,   113,   272,   291,   404,   418,   435,   610,   676,   717,  1035,  1037,  1078,  1179,  1211
  1403,  1493,  1494,  1611,  1624,  1629,  1792,  2390,  2413,  2426,  2490,  2507,  2510,  2531,  2554,  2747
  2786,  2853,  2877,  2953,  2954,  2959,  2972,  2989,  3018,  3278,  3279,  3280,  3287,  3303,  3443,  3686
  3697,  3714,  3724,  3736,  3803,  3810,  3815,  3924,  3926,  3937,  3993,  4133,  4136,  4152,  4155,  4157
  4177,  4237,  4242,  4268,  4367,  4378,  4396,  4471,  4514,  4587,  4618,  4637,  4644,  4645,  4659,  4670
  4674,  4679,  4680,  4681,  4693,  4701,  4704,  4711,  4719,  4729,  4739,  4740,  4766,  4775,  4776,  4784
  4791,  4794,  4798,  4806,  4812,  4813,  4816,  4821,  4829,  4832,  4834,  4837,  4844,  4846,  4848,  4851
  4855,  4857,  4858,  4865,  4872,  4882,  4895,  4911,  4920,  4931,  4936,  4940,  4970,  5031,  5103,  5158
  5197,  5198,  5214,  5222,  5234,  5302,  5306,  5317,  5322,  5348,  5436,  5443,  5489,  5518,  5549,  5550
  5642,  5643,  5655,  5668,  5695,  5705,  5733,  5735,  5753,  5884,  5898,  5900,  5922,  5938,  5953,  5985
  5989,  6028,  6106,  6151,  6159,  6214,  6229,  6233,  6283,  6322,  6338,  6431,  6439,  6489,  6532,  6534
  6539,  6540,  6548,  6554,  6561,  6562,  6566,  6569,  6577,  6596,  6600,  6601,  6612,  6624,  6629,  6635
  6636,  6643,  6647,  6650,  6655,  6658,  6675,  6678,  6679,  6681,  6684,  6691,  6697,  6699,  6705,  6706
  6709,  6712,  6713,  6720,  6729,  6734,  6741,  6754,  6758,  6774,  6776,  6779,  6783,  6786,  6787,  6800
  6802,  6803,  6806,  6821,  6823,  6836,  6838,  6842,  6844,  6848,  6858,  6861,  6864,  6868,  6875,  6886
  6889,  6892,  6898,  6902,  6906,  6921,  6924,  7003,  7004,  7006,  7065,  7133,  7387,  7458,  7630,  7779
  7877,  8324,  8450,  8957,  9063,  9266,  9448,  9449,  9547,  9764,  9765, 10350, 10855, 11430
*Elset, elset=_Surf-bottom_surface_S3, internal, instance=Part-1-1
   229,   400,   460,   522,   671,   783,  1608,  1647,  1664,  1702,  1739,  1743,  1747,  1759,  1773,  1776
  1781,  1827,  1872,  1874,  1877,  1881,  1890,  1896,  1907,  1909,  1910,  1913,  1918,  1927,  1945,  1949
  1956,  1981,  1985,  1989,  1996,  1997,  2001,  2009,  2010,  2015,  2016,  2020,  2029,  2030,  2036,  2039
  2046,  2084,  2085,  2086,  2091,  2093,  2103,  2106,  2113,  2120,  2122,  2124,  2127,  2135,  2153,  2162
  2164,  2172,  2173,  2184,  2189,  2191,  2200,  2204,  2213,  2219,  2225,  2236,  2249,  2257,  2269,  2270
  2271,  2282,  2283,  2284,  2285,  2291,  2293,  2297,  2301,  2323,  2328,  2334,  2349,  2362,  2364,  2368
  2370,  2371,  2373,  2385,  2391,  2427,  2429,  2436,  2565,  2576,  2580,  2669,  2687,  2691,  2808,  2904
  2908,  2996,  2997,  3009,  3094,  3095,  3143,  3330,  3332,  3350,  3357,  3375,  3376,  3377,  3385,  3390
  3394,  3396,  3425,  3433,  3436,  3445,  3448,  3454,  3461,  3464,  3475,  3476,  3480,  3495,  3498,  3502
  3504,  3538,  3541,  3542,  3544,  3548,  3550,  3553,  3567,  3575,  3579,  3580,  3584,  3595,  3601,  3602
  3612,  3614,  3616,  3622,  3626,  3635,  3643,  3652,  3658,  3659,  3757,  3760,  3768,  3774,  3775,  3781
  3836,  3858,  3978,  4079,  4080,  4086,  4109,  4201,  4203,  4207,  4309,  4325,  4327,  4399,  4406,  4417
  4442,  4446,  4520,  4528,  4533,  4548,  4561,  4575,  4952,  4963,  4994,  5004,  5020,  5029,  5036,  5053
  5064,  5075,  5091,  5098,  5099,  5105,  5111,  5117,  5119,  5135,  5152,  5172,  5260,  5270,  5282,  5368
  5393,  5405,  5407,  5409,  5504,  5508,  5524,  5605,  5711,  5712,  5791,  5798,  5799,  5821,  5845,  5851
  5858,  6040,  6168,  6173,  6177,  6272,  7010,  8591, 11149
*Elset, elset=_Surf-bottom_surface_S2, internal, instance=Part-1-1
 1825, 1933, 1934, 1992, 3410
*Elset, elset=_Surf-bottom_surface_S4, internal, instance=Part-1-1
  1837,  1939,  2052,  3456,  3605,  8821,  9507,  9608,  9737, 11859, 12030
*Elset, elset=_Surf-bottom_surface_S1, internal, instance=Part-1-1
  2156,  5568,  9416, 11959, 12024
*Surface, type=ELEMENT, name=Surf-bottom_surface
_Surf-bottom_surface_S3, S3
_Surf-bottom_surface_S2, S2
_Surf-bottom_surface_S4, S4
_Surf-bottom_surface_S1, S1
*Elset, elset=_Surf-top_surface_S3, internal, instance=Part-1-1
   97,  113,  272,  291,  404,  435,  610,  676,  717, 1035, 1037, 1078, 1179, 1211, 1403, 1494
 1611, 1624, 1629, 1792, 2390, 2413, 2426, 2490, 2507, 2531, 2853, 2954, 2959, 2972, 2989, 3018
 3278, 3279, 3443, 3697, 3714, 3724, 3736, 3803, 3810, 3815, 3924, 3926, 3937, 3993, 4152, 4155
 4157, 4177, 4237, 4268, 4367, 4378, 4396, 4471, 4514, 4587, 4618, 4637, 4644, 4659, 4670, 4674
 4679, 4680, 4681, 4693, 4701, 4704, 4711, 4719, 4729, 4739, 4740, 4766, 4775, 4776, 4784, 4791
 4794, 4798, 4806, 4813, 4816, 4821, 4834, 4837, 4844, 4846, 4848, 4851, 4855, 4857, 4858, 4865
 4872, 4882, 4911, 4920, 4931, 4936, 4940, 4970, 5031, 5103, 5197, 5198, 5214, 5234, 5306, 5317
 5348, 5436, 5443, 5489, 5518, 5549, 5550, 5642, 5643, 5655, 5668, 5695, 5705, 5735, 5753, 5884
 5898, 5900, 5922, 5938, 5953, 5985, 5989, 6028, 6106, 6159, 6214, 6229, 6283, 6322, 6338, 6439
 6489, 6539, 6548, 6554, 6561, 6562, 6569, 6577, 6596, 6600, 6601, 6612, 6624, 6629, 6635, 6643
 6647, 6650, 6655, 6658, 6675, 6678, 6679, 6681, 6684, 6691, 6697, 6699, 6705, 6706, 6712, 6713
 6729, 6734, 6741, 6758, 6776, 6779, 6783, 6786, 6787, 6800, 6802, 6803, 6806, 6821, 6823, 6836
 6838, 6842, 6848, 6861, 6864, 6868, 6875, 6886, 6889, 6892, 6898, 6902, 6906, 6921, 6924, 7003
 7004, 7006, 7065, 7387, 7458, 7779, 7877, 8324, 8957, 9063, 9266, 9448, 9764
*Elset, elset=_Surf-top_surface_S1, internal, instance=Part-1-1
   21,  418, 2554, 2747, 2877, 2953, 3686, 4829, 5158, 5302, 6431, 6534, 6709, 6754, 6844, 6858
 9765,
*Elset, elset=_Surf-top_surface_S4, internal, instance=Part-1-1
  2786,  3287,  4133,  4242,  4645,  4812,  4832,  5322,  5733,  6151,  6532,  6774,  7630,  9547, 10350, 10855
*Elset, elset=_Surf-top_surface_S2, internal, instance=Part-1-1
  1493,  2510,  3280,  3303,  4136,  4895,  5222,  6233,  6540,  6566,  6636,  6720,  7133,  8450,  9449, 11430
*Surface, type=ELEMENT, name=Surf-top_surface
_Surf-top_surface_S3, S3
_Surf-top_surface_S1, S1
_Surf-top_surface_S4, S4
_Surf-top_surface_S2, S2
** Constraint: Constraint-1
*Coupling, constraint name=Constraint-1, ref node=Set-RP-1, surface=Surf-top_surface
*Kinematic
** 
** INTEGRATED OUTPUT SECTIONS
** 
*Integrated Output Section, name=I-Section-1, surface=Surf-bottom_surface, project orientation=NO
*End Assembly
** 
** MATERIALS
** 
*Material, name=Material-1
*Elastic
 0.2, 0.4
** 
** BOUNDARY CONDITIONS
** 
** Name: BC-1 Type: Symmetry/Antisymmetry/Encastre
*Boundary
Set-bottom_surface, ENCASTRE
** ----------------------------------------------------------------
** 
** STEP: Step-1
** 
*Step, name=Step-1, nlgeom=YES
*Static
1., 1., 1e-05, 1.
** 
** BOUNDARY CONDITIONS
** 
** Name: BC-2 Type: Displacement/Rotation
*Boundary
Set-RP-1, 1, 1, u1
Set-RP-1, 2, 2, u2
Set-RP-1, 3, 3, u3
Set-RP-1, 4, 4, ur1
Set-RP-1, 5, 5, ur2
Set-RP-1, 6, 6, ur3
** 
** OUTPUT REQUESTS
** 
*Restart, write, frequency=0
** 
** FIELD OUTPUT: F-Output-1
** 
*Output, field
*Node Output
U, 
*Element Output, directions=YES
S, 
** 
** HISTORY OUTPUT: H-Output-1
** 
*Output, history
*Integrated Output, section=I-Section-1
SOF, SOM
*End Step
